<?xml version="1.0" encoding="UTF-8"?>

<!-- generated on 07/22/24 00:13:04 by Eclipse SUMO duarouter Version 1.8.0
<configuration xmlns:xsi="http://www.w3.org/2001/XMLSchema-instance" xsi:noNamespaceSchemaLocation="http://sumo.dlr.de/xsd/duarouterConfiguration.xsd">

    <input>
        <net-file value="D:\sumo-1.8.0\tools\simplenetwork.net.xml"/>
        <route-files value="trips.trips.xml"/>
    </input>

    <output>
        <output-file value="D:\sumo-1.8.0\tools\random.rou.xml"/>
        <alternatives-output value="D:\sumo-1.8.0\tools\random.rou.alt.xml"/>
    </output>

    <time>
        <begin value="0"/>
        <end value="5000"/>
    </time>

    <report>
        <no-warnings value="true"/>
        <ignore-errors value="true"/>
        <no-step-log value="true"/>
    </report>

</configuration>
-->

<routes xmlns:xsi="http://www.w3.org/2001/XMLSchema-instance" xsi:noNamespaceSchemaLocation="http://sumo.dlr.de/xsd/routes_file.xsd">
    <vehicle id="2" depart="2.00">
        <route edges="gneE6 gneE7"/>
    </vehicle>
    <vehicle id="6" depart="6.00">
        <route edges="gneE10 gneE11"/>
    </vehicle>
    <vehicle id="7" depart="7.00">
        <route edges="gneE6 gneE7"/>
    </vehicle>
    <vehicle id="13" depart="13.00">
        <route edges="gneE10 gneE11"/>
    </vehicle>
    <vehicle id="22" depart="22.00">
        <route edges="gneE10 gneE11"/>
    </vehicle>
    <vehicle id="27" depart="27.00">
        <route edges="gneE6 gneE7"/>
    </vehicle>
    <vehicle id="31" depart="31.00">
        <route edges="gneE6 gneE7"/>
    </vehicle>
    <vehicle id="32" depart="32.00">
        <route edges="gneE8 gneE9"/>
    </vehicle>
    <vehicle id="33" depart="33.00">
        <route edges="gneE10 gneE11"/>
    </vehicle>
    <vehicle id="34" depart="34.00">
        <route edges="gneE12 gneE13"/>
    </vehicle>
    <vehicle id="44" depart="44.00">
        <route edges="gneE10 gneE11"/>
    </vehicle>
    <vehicle id="49" depart="49.00">
        <route edges="gneE8 gneE9"/>
    </vehicle>
    <vehicle id="51" depart="51.00">
        <route edges="gneE6 gneE7"/>
    </vehicle>
    <vehicle id="57" depart="57.00">
        <route edges="gneE8 gneE9"/>
    </vehicle>
    <vehicle id="64" depart="64.00">
        <route edges="gneE8 gneE9"/>
    </vehicle>
    <vehicle id="66" depart="66.00">
        <route edges="gneE8 gneE9"/>
    </vehicle>
    <vehicle id="73" depart="73.00">
        <route edges="gneE6 gneE7"/>
    </vehicle>
    <vehicle id="77" depart="77.00">
        <route edges="gneE10 gneE11"/>
    </vehicle>
    <vehicle id="79" depart="79.00">
        <route edges="gneE10 gneE11"/>
    </vehicle>
    <vehicle id="84" depart="84.00">
        <route edges="gneE10 gneE11"/>
    </vehicle>
    <vehicle id="89" depart="89.00">
        <route edges="gneE12 gneE13"/>
    </vehicle>
    <vehicle id="90" depart="90.00">
        <route edges="gneE6 gneE7"/>
    </vehicle>
    <vehicle id="92" depart="92.00">
        <route edges="gneE12 gneE13"/>
    </vehicle>
    <vehicle id="95" depart="95.00">
        <route edges="gneE12 gneE13"/>
    </vehicle>
    <vehicle id="99" depart="99.00">
        <route edges="gneE8 gneE9"/>
    </vehicle>
    <vehicle id="100" depart="100.00">
        <route edges="gneE8 gneE9"/>
    </vehicle>
    <vehicle id="106" depart="106.00">
        <route edges="gneE12 gneE13"/>
    </vehicle>
    <vehicle id="107" depart="107.00">
        <route edges="gneE8 gneE9"/>
    </vehicle>
    <vehicle id="108" depart="108.00">
        <route edges="gneE6 gneE7"/>
    </vehicle>
    <vehicle id="111" depart="111.00">
        <route edges="gneE6 gneE7"/>
    </vehicle>
    <vehicle id="115" depart="115.00">
        <route edges="gneE10 gneE11"/>
    </vehicle>
    <vehicle id="116" depart="116.00">
        <route edges="gneE6 gneE7"/>
    </vehicle>
    <vehicle id="117" depart="117.00">
        <route edges="gneE10 gneE11"/>
    </vehicle>
    <vehicle id="119" depart="119.00">
        <route edges="gneE6 gneE7"/>
    </vehicle>
    <vehicle id="127" depart="127.00">
        <route edges="gneE8 gneE9"/>
    </vehicle>
    <vehicle id="128" depart="128.00">
        <route edges="gneE10 gneE11"/>
    </vehicle>
    <vehicle id="130" depart="130.00">
        <route edges="gneE8 gneE9"/>
    </vehicle>
    <vehicle id="137" depart="137.00">
        <route edges="gneE10 gneE11"/>
    </vehicle>
    <vehicle id="144" depart="144.00">
        <route edges="gneE12 gneE13"/>
    </vehicle>
    <vehicle id="147" depart="147.00">
        <route edges="gneE6 gneE7"/>
    </vehicle>
    <vehicle id="152" depart="152.00">
        <route edges="gneE10 gneE11"/>
    </vehicle>
    <vehicle id="154" depart="154.00">
        <route edges="gneE8 gneE9"/>
    </vehicle>
    <vehicle id="156" depart="156.00">
        <route edges="gneE10 gneE11"/>
    </vehicle>
    <vehicle id="157" depart="157.00">
        <route edges="gneE8 gneE9"/>
    </vehicle>
    <vehicle id="160" depart="160.00">
        <route edges="gneE8 gneE9"/>
    </vehicle>
    <vehicle id="161" depart="161.00">
        <route edges="gneE8 gneE9"/>
    </vehicle>
    <vehicle id="164" depart="164.00">
        <route edges="gneE8 gneE9"/>
    </vehicle>
    <vehicle id="167" depart="167.00">
        <route edges="gneE8 gneE9"/>
    </vehicle>
    <vehicle id="169" depart="169.00">
        <route edges="gneE12 gneE13"/>
    </vehicle>
    <vehicle id="171" depart="171.00">
        <route edges="gneE10 gneE11"/>
    </vehicle>
    <vehicle id="181" depart="181.00">
        <route edges="gneE6 gneE7"/>
    </vehicle>
    <vehicle id="185" depart="185.00">
        <route edges="gneE6 gneE7"/>
    </vehicle>
    <vehicle id="186" depart="186.00">
        <route edges="gneE6 gneE7"/>
    </vehicle>
    <vehicle id="191" depart="191.00">
        <route edges="gneE12 gneE13"/>
    </vehicle>
    <vehicle id="192" depart="192.00">
        <route edges="gneE12 gneE13"/>
    </vehicle>
    <vehicle id="205" depart="205.00">
        <route edges="gneE8 gneE9"/>
    </vehicle>
    <vehicle id="207" depart="207.00">
        <route edges="gneE10 gneE11"/>
    </vehicle>
    <vehicle id="214" depart="214.00">
        <route edges="gneE8 gneE9"/>
    </vehicle>
    <vehicle id="223" depart="223.00">
        <route edges="gneE6 gneE7"/>
    </vehicle>
    <vehicle id="226" depart="226.00">
        <route edges="gneE12 gneE13"/>
    </vehicle>
    <vehicle id="231" depart="231.00">
        <route edges="gneE12 gneE13"/>
    </vehicle>
    <vehicle id="238" depart="238.00">
        <route edges="gneE6 gneE7"/>
    </vehicle>
    <vehicle id="239" depart="239.00">
        <route edges="gneE8 gneE9"/>
    </vehicle>
    <vehicle id="242" depart="242.00">
        <route edges="gneE8 gneE9"/>
    </vehicle>
    <vehicle id="244" depart="244.00">
        <route edges="gneE6 gneE7"/>
    </vehicle>
    <vehicle id="245" depart="245.00">
        <route edges="gneE10 gneE11"/>
    </vehicle>
    <vehicle id="257" depart="257.00">
        <route edges="gneE8 gneE9"/>
    </vehicle>
    <vehicle id="264" depart="264.00">
        <route edges="gneE10 gneE11"/>
    </vehicle>
    <vehicle id="270" depart="270.00">
        <route edges="gneE8 gneE9"/>
    </vehicle>
    <vehicle id="271" depart="271.00">
        <route edges="gneE10 gneE11"/>
    </vehicle>
    <vehicle id="275" depart="275.00">
        <route edges="gneE6 gneE7"/>
    </vehicle>
    <vehicle id="280" depart="280.00">
        <route edges="gneE12 gneE13"/>
    </vehicle>
    <vehicle id="282" depart="282.00">
        <route edges="gneE8 gneE9"/>
    </vehicle>
    <vehicle id="302" depart="302.00">
        <route edges="gneE6 gneE7"/>
    </vehicle>
    <vehicle id="304" depart="304.00">
        <route edges="gneE10 gneE11"/>
    </vehicle>
    <vehicle id="311" depart="311.00">
        <route edges="gneE10 gneE11"/>
    </vehicle>
    <vehicle id="313" depart="313.00">
        <route edges="gneE10 gneE11"/>
    </vehicle>
    <vehicle id="317" depart="317.00">
        <route edges="gneE10 gneE11"/>
    </vehicle>
    <vehicle id="318" depart="318.00">
        <route edges="gneE10 gneE11"/>
    </vehicle>
    <vehicle id="324" depart="324.00">
        <route edges="gneE12 gneE13"/>
    </vehicle>
    <vehicle id="325" depart="325.00">
        <route edges="gneE10 gneE11"/>
    </vehicle>
    <vehicle id="329" depart="329.00">
        <route edges="gneE10 gneE11"/>
    </vehicle>
    <vehicle id="337" depart="337.00">
        <route edges="gneE6 gneE7"/>
    </vehicle>
    <vehicle id="339" depart="339.00">
        <route edges="gneE10 gneE11"/>
    </vehicle>
    <vehicle id="341" depart="341.00">
        <route edges="gneE10 gneE11"/>
    </vehicle>
    <vehicle id="353" depart="353.00">
        <route edges="gneE6 gneE7"/>
    </vehicle>
    <vehicle id="355" depart="355.00">
        <route edges="gneE6 gneE7"/>
    </vehicle>
    <vehicle id="359" depart="359.00">
        <route edges="gneE12 gneE13"/>
    </vehicle>
    <vehicle id="362" depart="362.00">
        <route edges="gneE8 gneE9"/>
    </vehicle>
    <vehicle id="367" depart="367.00">
        <route edges="gneE6 gneE7"/>
    </vehicle>
    <vehicle id="369" depart="369.00">
        <route edges="gneE12 gneE13"/>
    </vehicle>
    <vehicle id="374" depart="374.00">
        <route edges="gneE12 gneE13"/>
    </vehicle>
    <vehicle id="388" depart="388.00">
        <route edges="gneE8 gneE9"/>
    </vehicle>
    <vehicle id="391" depart="391.00">
        <route edges="gneE6 gneE7"/>
    </vehicle>
    <vehicle id="396" depart="396.00">
        <route edges="gneE8 gneE9"/>
    </vehicle>
    <vehicle id="400" depart="400.00">
        <route edges="gneE12 gneE13"/>
    </vehicle>
    <vehicle id="404" depart="404.00">
        <route edges="gneE6 gneE7"/>
    </vehicle>
    <vehicle id="405" depart="405.00">
        <route edges="gneE12 gneE13"/>
    </vehicle>
    <vehicle id="409" depart="409.00">
        <route edges="gneE6 gneE7"/>
    </vehicle>
    <vehicle id="422" depart="422.00">
        <route edges="gneE8 gneE9"/>
    </vehicle>
    <vehicle id="423" depart="423.00">
        <route edges="gneE12 gneE13"/>
    </vehicle>
    <vehicle id="427" depart="427.00">
        <route edges="gneE8 gneE9"/>
    </vehicle>
    <vehicle id="433" depart="433.00">
        <route edges="gneE12 gneE13"/>
    </vehicle>
    <vehicle id="436" depart="436.00">
        <route edges="gneE10 gneE11"/>
    </vehicle>
    <vehicle id="440" depart="440.00">
        <route edges="gneE12 gneE13"/>
    </vehicle>
    <vehicle id="449" depart="449.00">
        <route edges="gneE6 gneE7"/>
    </vehicle>
    <vehicle id="453" depart="453.00">
        <route edges="gneE6 gneE7"/>
    </vehicle>
    <vehicle id="458" depart="458.00">
        <route edges="gneE6 gneE7"/>
    </vehicle>
    <vehicle id="459" depart="459.00">
        <route edges="gneE6 gneE7"/>
    </vehicle>
    <vehicle id="466" depart="466.00">
        <route edges="gneE10 gneE11"/>
    </vehicle>
    <vehicle id="474" depart="474.00">
        <route edges="gneE8 gneE9"/>
    </vehicle>
    <vehicle id="476" depart="476.00">
        <route edges="gneE8 gneE9"/>
    </vehicle>
    <vehicle id="480" depart="480.00">
        <route edges="gneE6 gneE7"/>
    </vehicle>
    <vehicle id="481" depart="481.00">
        <route edges="gneE8 gneE9"/>
    </vehicle>
    <vehicle id="482" depart="482.00">
        <route edges="gneE10 gneE11"/>
    </vehicle>
    <vehicle id="485" depart="485.00">
        <route edges="gneE10 gneE11"/>
    </vehicle>
    <vehicle id="486" depart="486.00">
        <route edges="gneE8 gneE9"/>
    </vehicle>
    <vehicle id="487" depart="487.00">
        <route edges="gneE12 gneE13"/>
    </vehicle>
    <vehicle id="489" depart="489.00">
        <route edges="gneE12 gneE13"/>
    </vehicle>
    <vehicle id="492" depart="492.00">
        <route edges="gneE6 gneE7"/>
    </vehicle>
    <vehicle id="496" depart="496.00">
        <route edges="gneE12 gneE13"/>
    </vehicle>
    <vehicle id="498" depart="498.00">
        <route edges="gneE12 gneE13"/>
    </vehicle>
    <vehicle id="499" depart="499.00">
        <route edges="gneE8 gneE9"/>
    </vehicle>
    <vehicle id="502" depart="502.00">
        <route edges="gneE12 gneE13"/>
    </vehicle>
    <vehicle id="503" depart="503.00">
        <route edges="gneE10 gneE11"/>
    </vehicle>
    <vehicle id="505" depart="505.00">
        <route edges="gneE6 gneE7"/>
    </vehicle>
    <vehicle id="510" depart="510.00">
        <route edges="gneE10 gneE11"/>
    </vehicle>
    <vehicle id="514" depart="514.00">
        <route edges="gneE10 gneE11"/>
    </vehicle>
    <vehicle id="519" depart="519.00">
        <route edges="gneE10 gneE11"/>
    </vehicle>
    <vehicle id="520" depart="520.00">
        <route edges="gneE6 gneE7"/>
    </vehicle>
    <vehicle id="525" depart="525.00">
        <route edges="gneE8 gneE9"/>
    </vehicle>
    <vehicle id="528" depart="528.00">
        <route edges="gneE12 gneE13"/>
    </vehicle>
    <vehicle id="533" depart="533.00">
        <route edges="gneE6 gneE7"/>
    </vehicle>
    <vehicle id="541" depart="541.00">
        <route edges="gneE12 gneE13"/>
    </vehicle>
    <vehicle id="549" depart="549.00">
        <route edges="gneE6 gneE7"/>
    </vehicle>
    <vehicle id="552" depart="552.00">
        <route edges="gneE8 gneE9"/>
    </vehicle>
    <vehicle id="560" depart="560.00">
        <route edges="gneE8 gneE9"/>
    </vehicle>
    <vehicle id="563" depart="563.00">
        <route edges="gneE8 gneE9"/>
    </vehicle>
    <vehicle id="571" depart="571.00">
        <route edges="gneE12 gneE13"/>
    </vehicle>
    <vehicle id="574" depart="574.00">
        <route edges="gneE10 gneE11"/>
    </vehicle>
    <vehicle id="578" depart="578.00">
        <route edges="gneE12 gneE13"/>
    </vehicle>
    <vehicle id="580" depart="580.00">
        <route edges="gneE12 gneE13"/>
    </vehicle>
    <vehicle id="585" depart="585.00">
        <route edges="gneE10 gneE11"/>
    </vehicle>
    <vehicle id="586" depart="586.00">
        <route edges="gneE12 gneE13"/>
    </vehicle>
    <vehicle id="589" depart="589.00">
        <route edges="gneE6 gneE7"/>
    </vehicle>
    <vehicle id="590" depart="590.00">
        <route edges="gneE8 gneE9"/>
    </vehicle>
    <vehicle id="592" depart="592.00">
        <route edges="gneE10 gneE11"/>
    </vehicle>
    <vehicle id="593" depart="593.00">
        <route edges="gneE8 gneE9"/>
    </vehicle>
    <vehicle id="594" depart="594.00">
        <route edges="gneE6 gneE7"/>
    </vehicle>
    <vehicle id="596" depart="596.00">
        <route edges="gneE10 gneE11"/>
    </vehicle>
    <vehicle id="601" depart="601.00">
        <route edges="gneE6 gneE7"/>
    </vehicle>
    <vehicle id="602" depart="602.00">
        <route edges="gneE12 gneE13"/>
    </vehicle>
    <vehicle id="603" depart="603.00">
        <route edges="gneE12 gneE13"/>
    </vehicle>
    <vehicle id="609" depart="609.00">
        <route edges="gneE10 gneE11"/>
    </vehicle>
    <vehicle id="613" depart="613.00">
        <route edges="gneE8 gneE9"/>
    </vehicle>
    <vehicle id="615" depart="615.00">
        <route edges="gneE6 gneE7"/>
    </vehicle>
    <vehicle id="619" depart="619.00">
        <route edges="gneE12 gneE13"/>
    </vehicle>
    <vehicle id="621" depart="621.00">
        <route edges="gneE12 gneE13"/>
    </vehicle>
    <vehicle id="629" depart="629.00">
        <route edges="gneE12 gneE13"/>
    </vehicle>
    <vehicle id="630" depart="630.00">
        <route edges="gneE10 gneE11"/>
    </vehicle>
    <vehicle id="637" depart="637.00">
        <route edges="gneE12 gneE13"/>
    </vehicle>
    <vehicle id="640" depart="640.00">
        <route edges="gneE10 gneE11"/>
    </vehicle>
    <vehicle id="642" depart="642.00">
        <route edges="gneE6 gneE7"/>
    </vehicle>
    <vehicle id="643" depart="643.00">
        <route edges="gneE8 gneE9"/>
    </vehicle>
    <vehicle id="652" depart="652.00">
        <route edges="gneE6 gneE7"/>
    </vehicle>
    <vehicle id="654" depart="654.00">
        <route edges="gneE12 gneE13"/>
    </vehicle>
    <vehicle id="655" depart="655.00">
        <route edges="gneE10 gneE11"/>
    </vehicle>
    <vehicle id="657" depart="657.00">
        <route edges="gneE10 gneE11"/>
    </vehicle>
    <vehicle id="660" depart="660.00">
        <route edges="gneE8 gneE9"/>
    </vehicle>
    <vehicle id="664" depart="664.00">
        <route edges="gneE8 gneE9"/>
    </vehicle>
    <vehicle id="666" depart="666.00">
        <route edges="gneE12 gneE13"/>
    </vehicle>
    <vehicle id="668" depart="668.00">
        <route edges="gneE12 gneE13"/>
    </vehicle>
    <vehicle id="673" depart="673.00">
        <route edges="gneE8 gneE9"/>
    </vehicle>
    <vehicle id="674" depart="674.00">
        <route edges="gneE12 gneE13"/>
    </vehicle>
    <vehicle id="676" depart="676.00">
        <route edges="gneE8 gneE9"/>
    </vehicle>
    <vehicle id="690" depart="690.00">
        <route edges="gneE8 gneE9"/>
    </vehicle>
    <vehicle id="698" depart="698.00">
        <route edges="gneE6 gneE7"/>
    </vehicle>
    <vehicle id="705" depart="705.00">
        <route edges="gneE10 gneE11"/>
    </vehicle>
    <vehicle id="710" depart="710.00">
        <route edges="gneE6 gneE7"/>
    </vehicle>
    <vehicle id="712" depart="712.00">
        <route edges="gneE12 gneE13"/>
    </vehicle>
    <vehicle id="716" depart="716.00">
        <route edges="gneE6 gneE7"/>
    </vehicle>
    <vehicle id="724" depart="724.00">
        <route edges="gneE12 gneE13"/>
    </vehicle>
    <vehicle id="725" depart="725.00">
        <route edges="gneE10 gneE11"/>
    </vehicle>
    <vehicle id="747" depart="747.00">
        <route edges="gneE8 gneE9"/>
    </vehicle>
    <vehicle id="754" depart="754.00">
        <route edges="gneE12 gneE13"/>
    </vehicle>
    <vehicle id="755" depart="755.00">
        <route edges="gneE6 gneE7"/>
    </vehicle>
    <vehicle id="758" depart="758.00">
        <route edges="gneE6 gneE7"/>
    </vehicle>
    <vehicle id="760" depart="760.00">
        <route edges="gneE10 gneE11"/>
    </vehicle>
    <vehicle id="763" depart="763.00">
        <route edges="gneE12 gneE13"/>
    </vehicle>
    <vehicle id="776" depart="776.00">
        <route edges="gneE10 gneE11"/>
    </vehicle>
    <vehicle id="780" depart="780.00">
        <route edges="gneE6 gneE7"/>
    </vehicle>
    <vehicle id="791" depart="791.00">
        <route edges="gneE10 gneE11"/>
    </vehicle>
    <vehicle id="792" depart="792.00">
        <route edges="gneE10 gneE11"/>
    </vehicle>
    <vehicle id="795" depart="795.00">
        <route edges="gneE8 gneE9"/>
    </vehicle>
    <vehicle id="801" depart="801.00">
        <route edges="gneE6 gneE7"/>
    </vehicle>
    <vehicle id="804" depart="804.00">
        <route edges="gneE10 gneE11"/>
    </vehicle>
    <vehicle id="805" depart="805.00">
        <route edges="gneE6 gneE7"/>
    </vehicle>
    <vehicle id="812" depart="812.00">
        <route edges="gneE10 gneE11"/>
    </vehicle>
    <vehicle id="813" depart="813.00">
        <route edges="gneE12 gneE13"/>
    </vehicle>
    <vehicle id="819" depart="819.00">
        <route edges="gneE12 gneE13"/>
    </vehicle>
    <vehicle id="837" depart="837.00">
        <route edges="gneE12 gneE13"/>
    </vehicle>
    <vehicle id="845" depart="845.00">
        <route edges="gneE8 gneE9"/>
    </vehicle>
    <vehicle id="849" depart="849.00">
        <route edges="gneE12 gneE13"/>
    </vehicle>
    <vehicle id="850" depart="850.00">
        <route edges="gneE6 gneE7"/>
    </vehicle>
    <vehicle id="855" depart="855.00">
        <route edges="gneE6 gneE7"/>
    </vehicle>
    <vehicle id="862" depart="862.00">
        <route edges="gneE8 gneE9"/>
    </vehicle>
    <vehicle id="863" depart="863.00">
        <route edges="gneE6 gneE7"/>
    </vehicle>
    <vehicle id="865" depart="865.00">
        <route edges="gneE6 gneE7"/>
    </vehicle>
    <vehicle id="872" depart="872.00">
        <route edges="gneE8 gneE9"/>
    </vehicle>
    <vehicle id="874" depart="874.00">
        <route edges="gneE10 gneE11"/>
    </vehicle>
    <vehicle id="878" depart="878.00">
        <route edges="gneE12 gneE13"/>
    </vehicle>
    <vehicle id="880" depart="880.00">
        <route edges="gneE6 gneE7"/>
    </vehicle>
    <vehicle id="884" depart="884.00">
        <route edges="gneE12 gneE13"/>
    </vehicle>
    <vehicle id="886" depart="886.00">
        <route edges="gneE12 gneE13"/>
    </vehicle>
    <vehicle id="887" depart="887.00">
        <route edges="gneE8 gneE9"/>
    </vehicle>
    <vehicle id="890" depart="890.00">
        <route edges="gneE8 gneE9"/>
    </vehicle>
    <vehicle id="891" depart="891.00">
        <route edges="gneE8 gneE9"/>
    </vehicle>
    <vehicle id="892" depart="892.00">
        <route edges="gneE12 gneE13"/>
    </vehicle>
    <vehicle id="894" depart="894.00">
        <route edges="gneE12 gneE13"/>
    </vehicle>
    <vehicle id="898" depart="898.00">
        <route edges="gneE6 gneE7"/>
    </vehicle>
    <vehicle id="900" depart="900.00">
        <route edges="gneE6 gneE7"/>
    </vehicle>
    <vehicle id="910" depart="910.00">
        <route edges="gneE6 gneE7"/>
    </vehicle>
    <vehicle id="914" depart="914.00">
        <route edges="gneE8 gneE9"/>
    </vehicle>
    <vehicle id="915" depart="915.00">
        <route edges="gneE12 gneE13"/>
    </vehicle>
    <vehicle id="916" depart="916.00">
        <route edges="gneE8 gneE9"/>
    </vehicle>
    <vehicle id="917" depart="917.00">
        <route edges="gneE8 gneE9"/>
    </vehicle>
    <vehicle id="922" depart="922.00">
        <route edges="gneE8 gneE9"/>
    </vehicle>
    <vehicle id="924" depart="924.00">
        <route edges="gneE10 gneE11"/>
    </vehicle>
    <vehicle id="925" depart="925.00">
        <route edges="gneE12 gneE13"/>
    </vehicle>
    <vehicle id="929" depart="929.00">
        <route edges="gneE8 gneE9"/>
    </vehicle>
    <vehicle id="932" depart="932.00">
        <route edges="gneE10 gneE11"/>
    </vehicle>
    <vehicle id="935" depart="935.00">
        <route edges="gneE8 gneE9"/>
    </vehicle>
    <vehicle id="945" depart="945.00">
        <route edges="gneE10 gneE11"/>
    </vehicle>
    <vehicle id="946" depart="946.00">
        <route edges="gneE6 gneE7"/>
    </vehicle>
    <vehicle id="955" depart="955.00">
        <route edges="gneE6 gneE7"/>
    </vehicle>
    <vehicle id="965" depart="965.00">
        <route edges="gneE6 gneE7"/>
    </vehicle>
    <vehicle id="971" depart="971.00">
        <route edges="gneE8 gneE9"/>
    </vehicle>
    <vehicle id="974" depart="974.00">
        <route edges="gneE8 gneE9"/>
    </vehicle>
    <vehicle id="976" depart="976.00">
        <route edges="gneE6 gneE7"/>
    </vehicle>
    <vehicle id="979" depart="979.00">
        <route edges="gneE6 gneE7"/>
    </vehicle>
    <vehicle id="980" depart="980.00">
        <route edges="gneE10 gneE11"/>
    </vehicle>
    <vehicle id="982" depart="982.00">
        <route edges="gneE6 gneE7"/>
    </vehicle>
    <vehicle id="988" depart="988.00">
        <route edges="gneE8 gneE9"/>
    </vehicle>
    <vehicle id="989" depart="989.00">
        <route edges="gneE10 gneE11"/>
    </vehicle>
    <vehicle id="990" depart="990.00">
        <route edges="gneE10 gneE11"/>
    </vehicle>
    <vehicle id="991" depart="991.00">
        <route edges="gneE6 gneE7"/>
    </vehicle>
    <vehicle id="998" depart="998.00">
        <route edges="gneE6 gneE7"/>
    </vehicle>
    <vehicle id="999" depart="999.00">
        <route edges="gneE12 gneE13"/>
    </vehicle>
    <vehicle id="1003" depart="1003.00">
        <route edges="gneE8 gneE9"/>
    </vehicle>
    <vehicle id="1012" depart="1012.00">
        <route edges="gneE8 gneE9"/>
    </vehicle>
    <vehicle id="1015" depart="1015.00">
        <route edges="gneE10 gneE11"/>
    </vehicle>
    <vehicle id="1022" depart="1022.00">
        <route edges="gneE6 gneE7"/>
    </vehicle>
    <vehicle id="1032" depart="1032.00">
        <route edges="gneE12 gneE13"/>
    </vehicle>
    <vehicle id="1038" depart="1038.00">
        <route edges="gneE10 gneE11"/>
    </vehicle>
    <vehicle id="1045" depart="1045.00">
        <route edges="gneE8 gneE9"/>
    </vehicle>
    <vehicle id="1050" depart="1050.00">
        <route edges="gneE6 gneE7"/>
    </vehicle>
    <vehicle id="1051" depart="1051.00">
        <route edges="gneE10 gneE11"/>
    </vehicle>
    <vehicle id="1052" depart="1052.00">
        <route edges="gneE8 gneE9"/>
    </vehicle>
    <vehicle id="1058" depart="1058.00">
        <route edges="gneE6 gneE7"/>
    </vehicle>
    <vehicle id="1059" depart="1059.00">
        <route edges="gneE12 gneE13"/>
    </vehicle>
    <vehicle id="1066" depart="1066.00">
        <route edges="gneE10 gneE11"/>
    </vehicle>
    <vehicle id="1069" depart="1069.00">
        <route edges="gneE12 gneE13"/>
    </vehicle>
    <vehicle id="1076" depart="1076.00">
        <route edges="gneE10 gneE11"/>
    </vehicle>
    <vehicle id="1081" depart="1081.00">
        <route edges="gneE10 gneE11"/>
    </vehicle>
    <vehicle id="1082" depart="1082.00">
        <route edges="gneE8 gneE9"/>
    </vehicle>
    <vehicle id="1090" depart="1090.00">
        <route edges="gneE10 gneE11"/>
    </vehicle>
    <vehicle id="1095" depart="1095.00">
        <route edges="gneE6 gneE7"/>
    </vehicle>
    <vehicle id="1102" depart="1102.00">
        <route edges="gneE12 gneE13"/>
    </vehicle>
    <vehicle id="1104" depart="1104.00">
        <route edges="gneE6 gneE7"/>
    </vehicle>
    <vehicle id="1107" depart="1107.00">
        <route edges="gneE10 gneE11"/>
    </vehicle>
    <vehicle id="1108" depart="1108.00">
        <route edges="gneE6 gneE7"/>
    </vehicle>
    <vehicle id="1110" depart="1110.00">
        <route edges="gneE10 gneE11"/>
    </vehicle>
    <vehicle id="1111" depart="1111.00">
        <route edges="gneE12 gneE13"/>
    </vehicle>
    <vehicle id="1117" depart="1117.00">
        <route edges="gneE12 gneE13"/>
    </vehicle>
    <vehicle id="1118" depart="1118.00">
        <route edges="gneE12 gneE13"/>
    </vehicle>
    <vehicle id="1120" depart="1120.00">
        <route edges="gneE8 gneE9"/>
    </vehicle>
    <vehicle id="1123" depart="1123.00">
        <route edges="gneE12 gneE13"/>
    </vehicle>
    <vehicle id="1125" depart="1125.00">
        <route edges="gneE12 gneE13"/>
    </vehicle>
    <vehicle id="1132" depart="1132.00">
        <route edges="gneE12 gneE13"/>
    </vehicle>
    <vehicle id="1133" depart="1133.00">
        <route edges="gneE8 gneE9"/>
    </vehicle>
    <vehicle id="1137" depart="1137.00">
        <route edges="gneE8 gneE9"/>
    </vehicle>
    <vehicle id="1143" depart="1143.00">
        <route edges="gneE6 gneE7"/>
    </vehicle>
    <vehicle id="1144" depart="1144.00">
        <route edges="gneE6 gneE7"/>
    </vehicle>
    <vehicle id="1148" depart="1148.00">
        <route edges="gneE8 gneE9"/>
    </vehicle>
    <vehicle id="1149" depart="1149.00">
        <route edges="gneE12 gneE13"/>
    </vehicle>
    <vehicle id="1151" depart="1151.00">
        <route edges="gneE6 gneE7"/>
    </vehicle>
    <vehicle id="1158" depart="1158.00">
        <route edges="gneE6 gneE7"/>
    </vehicle>
    <vehicle id="1166" depart="1166.00">
        <route edges="gneE6 gneE7"/>
    </vehicle>
    <vehicle id="1167" depart="1167.00">
        <route edges="gneE6 gneE7"/>
    </vehicle>
    <vehicle id="1168" depart="1168.00">
        <route edges="gneE12 gneE13"/>
    </vehicle>
    <vehicle id="1171" depart="1171.00">
        <route edges="gneE10 gneE11"/>
    </vehicle>
    <vehicle id="1176" depart="1176.00">
        <route edges="gneE12 gneE13"/>
    </vehicle>
    <vehicle id="1178" depart="1178.00">
        <route edges="gneE12 gneE13"/>
    </vehicle>
    <vehicle id="1183" depart="1183.00">
        <route edges="gneE10 gneE11"/>
    </vehicle>
    <vehicle id="1191" depart="1191.00">
        <route edges="gneE8 gneE9"/>
    </vehicle>
    <vehicle id="1192" depart="1192.00">
        <route edges="gneE10 gneE11"/>
    </vehicle>
    <vehicle id="1194" depart="1194.00">
        <route edges="gneE12 gneE13"/>
    </vehicle>
    <vehicle id="1196" depart="1196.00">
        <route edges="gneE6 gneE7"/>
    </vehicle>
    <vehicle id="1197" depart="1197.00">
        <route edges="gneE6 gneE7"/>
    </vehicle>
    <vehicle id="1202" depart="1202.00">
        <route edges="gneE10 gneE11"/>
    </vehicle>
    <vehicle id="1208" depart="1208.00">
        <route edges="gneE6 gneE7"/>
    </vehicle>
    <vehicle id="1211" depart="1211.00">
        <route edges="gneE12 gneE13"/>
    </vehicle>
    <vehicle id="1213" depart="1213.00">
        <route edges="gneE10 gneE11"/>
    </vehicle>
    <vehicle id="1214" depart="1214.00">
        <route edges="gneE8 gneE9"/>
    </vehicle>
    <vehicle id="1218" depart="1218.00">
        <route edges="gneE10 gneE11"/>
    </vehicle>
    <vehicle id="1227" depart="1227.00">
        <route edges="gneE6 gneE7"/>
    </vehicle>
    <vehicle id="1229" depart="1229.00">
        <route edges="gneE8 gneE9"/>
    </vehicle>
    <vehicle id="1231" depart="1231.00">
        <route edges="gneE12 gneE13"/>
    </vehicle>
    <vehicle id="1233" depart="1233.00">
        <route edges="gneE8 gneE9"/>
    </vehicle>
    <vehicle id="1236" depart="1236.00">
        <route edges="gneE6 gneE7"/>
    </vehicle>
    <vehicle id="1237" depart="1237.00">
        <route edges="gneE10 gneE11"/>
    </vehicle>
    <vehicle id="1238" depart="1238.00">
        <route edges="gneE10 gneE11"/>
    </vehicle>
    <vehicle id="1242" depart="1242.00">
        <route edges="gneE12 gneE13"/>
    </vehicle>
    <vehicle id="1243" depart="1243.00">
        <route edges="gneE8 gneE9"/>
    </vehicle>
    <vehicle id="1245" depart="1245.00">
        <route edges="gneE8 gneE9"/>